       9
<yaff.system.System object at 0x4ac8f50>
Si  1.999357437 -1.154329699 -1.801733563
Si  0.000000000  2.308659399  1.801733563
Si -1.999357437 -1.154329699  0.000000000
 O  1.762048976  0.299963042 -1.159593954
 O -1.140800226  1.375997798  2.443872642
 O -0.621248751 -1.675960841  0.642139609
 O  0.621248751 -1.675960841 -2.443872642
 O -1.762048976  0.299963042 -0.642139609
 O  1.140800226  1.375997798  1.159593954
